60
# CELL(abcABC):    1.49674     1.49674     1.49674    60.00000    60.00000    60.00000  Step:         134  Bead:       0 positions{angstrom}  cell{angstrom}
      Al  1.49655e+00  4.31353e-01  3.05888e-01
      Al  7.48402e-01  6.48163e-01 -3.62576e-15
      Al  9.35895e-01  9.71911e-01  9.16915e-01
      Al  1.12274e+00  4.31353e-01  3.05888e-01
      Al  1.30965e+00  5.39264e-01  6.11107e-01
      Al  9.35029e-01  1.08268e-01  3.05167e-01
      Al  1.12184e+00  8.64555e-01  6.11107e-01
      Al  3.73470e-01  2.15623e-01  6.10975e-01
      Al  1.49745e+00  1.08038e+00  3.05888e-01
      Al  2.24247e+00  1.29469e+00  9.12258e-01
      Al  1.12184e+00  1.08038e+00  3.05888e-01
      Al  7.48402e-01  4.32090e-01  3.05574e-01
      Al  1.12184e+00  1.29601e+00  9.16195e-01
      Al -1.84279e-04 -1.06394e-04  7.99768e-04
      Al  7.45734e-01  1.08170e+00  3.09825e-01
      Al  9.35992e-01  3.23535e-01  9.16195e-01
      Al  1.30965e+00  3.24054e-01  1.26180e-15
      Al  7.48402e-01 -5.61441e-05 -7.93901e-16
      Al  1.87356e+00  1.08170e+00  3.09825e-01
      Al  1.30965e+00  9.72198e-01  9.16509e-01
      Al  7.45734e-01  8.68708e-01  6.11041e-01
      Al  9.35462e-01  9.72161e-01  1.20924e-15
      Al  1.30965e+00  9.71948e-01 -7.99768e-04
      Al  1.68330e+00  3.23535e-01  9.16195e-01
      Al  1.68910e+00  1.18820e+00  6.11041e-01
      Al  1.68383e+00  9.72161e-01  1.35204e-15
      Al  5.61277e-01  3.24054e-01  2.21367e-15
      Al  3.74152e-01 -5.61441e-05 -3.51254e-15
      Al  1.30965e+00  3.24553e-01  9.16915e-01
      Al  9.35527e-01  3.24054e-01 -4.60050e-15
      Al  1.68383e+00  5.40089e-01  6.11041e-01
      Al  2.05802e+00  9.75204e-01  9.12258e-01
      Al  1.12252e+00  6.48088e-01  9.16509e-01
      Al  1.49745e+00  1.29601e+00  9.16195e-01
      Al  7.48185e-01  6.48826e-01  9.16195e-01
      Al  1.49410e+00  2.11470e-01  6.11041e-01
      Al  9.34932e-01  7.56644e-01  3.05888e-01
      Al  1.49655e+00  6.48213e-01 -7.99768e-04
      Al  5.61277e-01  3.24054e-01  9.16562e-01
      Al  1.87356e+00  8.68708e-01  6.11041e-01
      Al  1.30965e+00  1.04974e-01  3.09825e-01
      Al  1.87028e-01  3.24054e-01 -4.55623e-15
      Al  3.74152e-01  6.48163e-01 -6.77165e-16
      Al  3.74152e-01  4.32090e-01  3.05574e-01
      Al  1.30965e+00  1.18820e+00  6.11041e-01
      Al  1.12519e+00  2.11470e-01  6.11041e-01
      Al  1.12274e+00  6.48213e-01 -7.99768e-04
      Al  5.61277e-01  5.40914e-01  6.10975e-01
      Al  5.61277e-01  9.72373e-01  7.99768e-04
      Al  1.30965e+00  7.56125e-01  3.05521e-01
      Al  1.87356e+00  1.29469e+00  9.12258e-01
      Al  7.49084e-01  2.15623e-01  6.10975e-01
      Al  9.35462e-01  5.40089e-01  6.11041e-01
      Al  1.49745e+00  8.64555e-01  6.11107e-01
      Al  9.30190e-01  1.18820e+00  6.11041e-01
      Al  5.61277e-01  1.07980e-01  3.05574e-01
      Al  1.87111e+00  6.48826e-01  9.16195e-01
      Al  1.87525e-01  1.08268e-01  3.05167e-01
      Al  1.68436e+00  7.56644e-01  3.05888e-01
      Al  1.12274e+00 -1.06394e-04  7.99768e-04
